        80
            21.00000
   B                    17.65147              19.30247              20.24740
   OH                   17.54270              17.95261              20.86880
   OH                   16.34781              20.01312              20.37203
   OH                   18.71214              20.08504              20.94213
   OH                   18.00324              19.15910              18.80664
   B                     7.40984               6.01724               2.79020
   OH                    8.64797               6.75534               3.16748
   OH                    7.41462               5.75646               1.32321
   OH                    7.36054               4.72184               3.52478
   OH                    6.21623               6.83533               3.14534
   B                     4.76806              19.46768              19.62625
   OH                    4.81254              18.74219              20.92694
   OH                    3.95302              20.70599              19.77586
   OH                    6.15258              19.83130              19.21277
   OH                    4.15410              18.59123              18.58944
   B                     8.22691              11.21053               7.39246
   OH                    8.64212              11.22863               5.96160
   OH                    7.41499               9.98986               7.65860
   OH                    9.43764              11.20081               8.26086
   OH                    7.41289              12.42283               7.68877
   B                     7.60624              15.36352              12.68038
   OH                    7.75346              16.77858              12.23763
   OH                    6.88777              14.58701              11.63113
   OH                    8.95467              14.76957              12.90190
   OH                    6.82907              15.31891              13.95085
   B                     8.17155               7.62946              15.49002
   OH                    9.56686               7.83969              15.01148
   OH                    7.85538               8.62547              16.55215
   OH                    7.22517               7.79979              14.35184
   OH                    8.03878               6.25291              16.04461
   B                     8.00379              17.64713               5.70209
   OH                    7.42243              16.48958               6.43843
   OH                    7.43267              17.69845               4.32685
   OH                    7.67673              18.90936               6.42313
   OH                    9.48332              17.49112               5.61995
   B                     8.75238              15.41265               9.32713
   OH                    7.81892              16.57292               9.27682
   OH                    8.69656              14.78856              10.67897
   OH                    8.35362              14.40949               8.30012
   OH                   10.14042              15.87964               9.05261
   B                     6.74799              17.71296               0.43238
   OH                    6.92672              16.25316               0.67144
   OH                    5.91536              17.91842              -0.78606
   OH                    6.06967              18.32923               1.60719
   OH                    8.08020              18.35101               0.23696
   B                    12.69971               6.59513               6.68443
   OH                   12.35532               5.14561               6.70371
   OH                   14.10712               6.77732               7.13842
   OH                   12.55274               7.12215               5.29852
   OH                   11.78368               7.33544               7.59706
   B                     7.75918              10.78304               2.49055
   OH                    7.26754              10.16601               3.75454
   OH                    6.71083              10.66279               1.43861
   OH                    8.06357              12.22246               2.72615
   OH                    8.99479              10.08090               2.04293
   B                    14.62651               2.25197              19.74375
   OH                   14.20994               2.54017              21.14500
   OH                   15.70176               1.22051              19.74743
   OH                   13.45648               1.74697              18.97167
   OH                   15.13784               3.50022              19.11090
   B                     9.11179               3.24246               8.18336
   OH                    9.19223               2.53450               9.49195
   OH                   10.48354               3.60966               7.73218
   OH                    8.47932               2.34842               7.17303
   OH                    8.29207               4.47728               8.33628
   B                    18.38987              15.97298               4.73488
   OH                   17.09751              16.21046               5.43738
   OH                   19.46918              16.75295               5.40333
   OH                   18.72260              14.52145               4.78426
   OH                   18.27018              16.40706               3.31455
   B                     3.22299               2.28525               4.67074
   OH                    3.27119               2.59932               3.21502
   OH                    2.70135               3.46508               5.41637
   OH                    2.32533               1.11783               4.89750
   OH                    4.59408               1.95877               5.15407
   B                     1.59251               9.76332               2.35427
   OH                    0.32625               9.43930               3.06959
   OH                    2.71176               9.83828               3.33496
   OH                    1.88188               8.70074               1.35063
   OH                    1.45016              11.07497               1.66188
