        16
            21.00000
   Na                    9.73797               9.77261               3.95255
   Na                   20.81939               9.97725              13.09122
   Na                    8.62679              16.31700               0.78875
   Na                    8.48088              17.65753              15.24137
   Na                   18.88369               5.69706               4.16223
   Na                   11.97459              13.95135              13.75670
   Na                   10.23126              19.58267              17.22602
   Na                   18.83434              12.05047              15.02129
   Na                    9.03152              18.44640              18.94598
   Na                    3.94071              12.63747              17.82307
   Na                    9.79996               3.62081               0.72896
   Na                   10.42070              18.83208               3.93440
   Na                    6.76421              16.10403              19.90392
   Na                   10.10131              19.04861              19.80701
   Na                    6.59757               5.78908               4.81248
   Na                   13.79976               5.18940               1.25031
        16
            21.52331
   Na                    9.44081               8.06330               1.92346
   Na                    1.53252               8.20120              12.17298
   Na                    7.17908              16.13188               0.41172
   Na                   10.44804              19.48156              15.96988
   Na                    0.22828               7.64285               6.22109
   Na                    9.60262              15.07632              15.26073
   Na                   13.82720              18.76385              20.44755
   Na                   15.49299              10.17352              15.56928
   Na                    8.89191               1.08208              17.17564
   Na                    1.41058              14.68255              18.26045
   Na                    9.65564               1.40248               1.63455
   Na                   12.69491              20.94735               7.84237
   Na                    3.57387              17.20321               0.26168
   Na                   11.50650              20.21170               4.44074
   Na                    6.81661               7.84215               8.05753
   Na                   15.64401               4.12305               1.71788
        16
            21.38844
   Na                    9.38310               9.25171               3.41024
   Na                    0.55853               7.29188              15.30567
   Na                    6.88027              17.99332               0.31530
   Na                    9.55925              18.77154              14.73372
   Na                    1.37452               8.35055               7.62499
   Na                    7.90494              15.58159              13.26487
   Na                   16.64995              19.24135              18.62334
   Na                   15.73500              10.23736              15.42580
   Na                    9.22342               2.50300              18.93793
   Na                    2.73194              13.45312              18.64644
   Na                   10.62690               2.00810               3.38648
   Na                   12.80046               0.30876               7.68119
   Na                    3.17147              17.80805               0.64222
   Na                   11.22148              20.31136               5.12819
   Na                    8.69999               9.68511              10.98640
   Na                   17.18198               4.46321               3.59447
        16
            21.44521
   Na                    7.11846               9.85747               4.17657
   Na                    0.11764               7.23552              12.81730
   Na                    5.91588              17.55080               1.10850
   Na                   10.44274              19.00782              16.58126
   Na                    1.63441               6.65630               7.02314
   Na                    9.74392              14.79049              16.86720
   Na                   16.17657              18.36928              18.74014
   Na                   16.11528              10.71328              15.34114
   Na                    8.16470               5.47521              20.72428
   Na                    2.07303              13.25525              20.74131
   Na                   10.28642               3.03602               3.71530
   Na                   13.43780              20.09568               8.43599
   Na                    2.20891              18.55972               0.42572
   Na                   11.82527              18.64077               5.64495
   Na                    7.63771               9.05738              10.68600
   Na                   16.60741               6.11560               1.73271
        16
            21.63408
   Na                    8.22638               8.28610               4.61861
   Na                   21.30200               5.80992              11.50981
   Na                    5.88816              16.43262               0.40941
   Na                   11.78104              16.42049              16.57618
   Na                    1.21460               5.05663               6.24655
   Na                   10.41316              12.36742              16.71480
   Na                   15.11220              16.99450              17.24694
   Na                   12.93462               7.07445              15.07620
   Na                    7.87689               2.96500              21.04695
   Na                    1.75380              12.69376              20.47582
   Na                   11.22914               1.42049               5.44714
   Na                   13.10171              18.01072               5.95366
   Na                    3.03760              17.60061              21.52835
   Na                    9.74003              17.34975               5.09937
   Na                    6.67485               7.76828               8.43249
   Na                   18.27154               5.74795               2.13915
        16
            21.57053
   Na                    7.32917               7.97228               5.24074
   Na                   18.41383               7.29141              14.12627
   Na                    5.01893              16.62602               1.23080
   Na                   13.26843              15.12925              17.27174
   Na                    1.18287               5.80617               7.77360
   Na                    9.56103              13.53500              17.39226
   Na                   14.91092              20.85438              13.56127
   Na                   14.71375               9.35379              17.61477
   Na                    8.27083               3.08311              21.00971
   Na                   20.75454              12.25412              20.20680
   Na                   11.37396               2.85627               4.09279
   Na                   15.93624              19.00902               7.12961
   Na                    1.55154              17.15404              21.19936
   Na                    9.70336              15.80884               6.60621
   Na                    5.13969               7.63872               7.79205
   Na                   18.23553               8.39763               1.82020
        16
            21.44365
   Na                    7.45430               6.06933               3.73524
   Na                   17.87725               4.25603              13.66404
   Na                    4.75106              15.33593               0.41219
   Na                   11.28118              12.93491              16.59519
   Na                   20.11197               6.08662               8.96933
   Na                   10.20676              12.80782              13.00650
   Na                   13.23082              17.78854              14.15000
   Na                   18.01479               9.87460              12.62752
   Na                    7.62539               2.39176              18.00837
   Na                   19.47315              12.64387              20.28772
   Na                   11.67963               0.39722               4.50880
   Na                   15.89623              20.19209               8.43499
   Na                    1.59003              15.28209              21.29153
   Na                    8.03254              14.95836               5.45410
   Na                    6.69719               5.79444               7.25784
   Na                   16.04898               6.99067               2.05735
        16
            21.57891
   Na                    7.51075               6.36465               3.90548
   Na                   18.58510               3.80224              13.82353
   Na                    5.55891              14.49994               2.03488
   Na                   11.97840              13.40894              18.00121
   Na                    1.36454               2.93142               8.46704
   Na                   10.37738              13.30997              14.60167
   Na                   13.13069              19.71435              15.47247
   Na                   18.33004              11.30652              13.10859
   Na                    5.87774               1.96195               0.29800
   Na                   19.67465              13.76703               0.17285
   Na                   11.83825              20.25693               3.44758
   Na                   14.94772              19.07516               8.50477
   Na                    1.75950              16.69848               1.42468
   Na                   10.59545              14.46186               6.36723
   Na                    3.43559               7.63196               5.14063
   Na                   16.82911               7.96611               4.29605
        16
            21.42207
   Na                    6.52375               5.05577               3.18240
   Na                    0.72266               4.44984               8.75261
   Na                    3.64920              13.87523               0.06853
   Na                   12.90176              10.29200              18.66952
   Na                    0.54872               2.23725               6.09532
   Na                   13.18333              10.14891              14.40016
   Na                   13.93332              19.84992              12.71847
   Na                   20.00299              10.04610              12.77684
   Na                    5.14077              21.25377              19.97888
   Na                   19.58782              11.40314               0.96052
   Na                   10.44851              19.21876               2.09786
   Na                   15.05969              17.21969               8.58065
   Na                    0.46426              15.36700              20.84246
   Na                    7.97135              12.97673               5.86554
   Na                    3.47562               6.53312               7.69246
   Na                   14.59896               6.12802               4.06518
        16
            21.40258
   Na                    7.85837               5.68477               3.03074
   Na                   20.00627               8.11681               9.37099
   Na                    5.61140              13.17298               0.67734
   Na                   13.65616              11.07145              17.05369
   Na                    0.38541               1.72579               7.10792
   Na                   14.76025               8.91229              15.00205
   Na                   15.09298              20.48378              14.77379
   Na                    0.37663              10.37621              13.72167
   Na                    7.97813               0.35913              17.68150
   Na                   20.22703               9.83933               3.52405
   Na                   11.84751              19.18752               4.04204
   Na                   14.44891              16.35338               9.72761
   Na                    2.13404              13.52315               0.05150
   Na                    8.23264              13.86729               6.96558
   Na                    3.41588               6.71679               7.34340
   Na                   16.69780               4.80332               5.20997
        16
            21.38537
   Na                    8.62897               5.99540               4.02369
   Na                    0.83459              10.06427              10.98811
   Na                    7.20009              13.43265               2.23486
   Na                   11.75926              10.93364              16.36495
   Na                    1.82111               1.43773               6.54536
   Na                   13.60357               8.01596              15.11309
   Na                   14.93176              20.34025              18.12427
   Na                    2.45624              11.51025              15.12782
   Na                    5.63837              20.14680              17.80233
   Na                   17.86012               7.54227               3.33079
   Na                   14.51498              18.53724               5.24808
   Na                   15.14463              17.76297              10.63975
   Na                    4.00039              14.91629               2.52781
   Na                   11.03159              13.20564               8.26617
   Na                    5.15464               5.90516               6.50187
   Na                   15.61626               4.87623               5.31566
        16
            21.53617
   Na                    7.61190               4.70431               4.57515
   Na                    3.64779              12.92034               8.83813
   Na                    6.24949              18.18813               1.41214
   Na                   13.31841              10.73624              18.12622
   Na                    2.11178               1.76493               6.17898
   Na                   12.02028               6.69930              17.42567
   Na                   13.50243              20.47949              19.85118
   Na                    2.31831              13.32482              13.84454
   Na                    7.66896              19.99393              18.13288
   Na                   18.14768               6.73243               3.42399
   Na                   11.87458              20.96285               8.95872
   Na                   12.46651              18.12851              11.29865
   Na                    2.99626              17.88432               1.65906
   Na                   12.31167              12.24908               9.28452
   Na                    3.27102               5.07276               5.88935
   Na                   15.84018               4.99515               5.66128
        16
            21.37568
   Na                    9.51509               5.91201               5.53152
   Na                    5.39659              12.54399               9.90017
   Na                    7.12348              17.83381               1.20085
   Na                   14.50293              13.11747              20.89256
   Na                    3.10607               1.00446               6.19477
   Na                   12.74164               9.61274              18.20774
   Na                   13.43305               0.69163              20.35764
   Na                    3.19284              13.07441              14.35656
   Na                    7.02563              17.84554              15.96859
   Na                   19.59391               6.99221               2.76064
   Na                   14.18040              19.85953               8.36018
   Na                   12.67500              16.65143               7.38138
   Na                    4.09365              19.84986               0.40941
   Na                   12.51083               9.50762              11.65276
   Na                    3.89380               4.24155               5.38653
   Na                   17.32990               4.70261               4.32533
        16
            21.53302
   Na                    9.52748               6.43443               3.89159
   Na                    6.44049              11.60553               9.29173
   Na                    8.21829              19.77096              21.36887
   Na                   15.49872              15.12682              20.30830
   Na                    2.45057              20.64340               6.25570
   Na                   12.73644              10.57277              18.62034
   Na                   13.74008              21.50081              18.80108
   Na                    6.92290              15.60731              13.88199
   Na                    4.43374              20.38949              15.26962
   Na                   20.60866               7.14984               2.08259
   Na                   12.84952               0.01496               9.01475
   Na                   15.38036              17.54878               5.30614
   Na                    4.27897              21.08903               0.62218
   Na                   16.54766              11.33980              10.07597
   Na                    3.58795               7.13344               4.47369
   Na                   17.02543               7.19012               4.32327
        16
            21.51014
   Na                   11.45073               6.23063               2.99685
   Na                    9.06053              12.87201               7.40434
   Na                    7.94862              18.97587               0.89531
   Na                   16.20042              14.66652              20.14339
   Na                    1.59359               1.58085               4.66339
   Na                   11.08980              11.62920              17.55495
   Na                   14.21002              20.59735              18.53419
   Na                    9.04037              13.55171              13.58354
   Na                    3.89792              20.61550              14.91007
   Na                    1.13440               6.76734              21.41357
   Na                   17.69360              21.23068               8.87123
   Na                   15.81674              16.24976               4.94973
   Na                    4.90638              18.46989              20.30617
   Na                   17.49977               9.45066               8.15630
   Na                    4.57313               9.78125               3.82983
   Na                   16.68557               6.93490               1.67426
        16
            21.38465
   Na                   12.03728               5.03270               2.11603
   Na                    6.87302              14.35212               5.49081
   Na                    6.81299              17.66251               0.54714
   Na                   16.83555              13.08207              17.81036
   Na                    0.71960               1.21285               6.43989
   Na                   10.07654               8.18782              17.51231
   Na                   14.34799              20.49721              18.44118
   Na                   10.63747              13.08515              14.93588
   Na                    3.07834              19.81513              13.06460
   Na                    2.45610               5.14321              19.60581
   Na                   16.81581              20.47284               8.73875
   Na                   14.58442              14.73909               3.89798
   Na                    4.07371              19.14606              19.50188
   Na                   14.64112              10.98501               7.68681
   Na                    4.17895              11.42628              21.01761
   Na                   18.37429               8.81572               1.64066
        16
            21.43685
   Na                   11.97305               3.09088               1.65671
   Na                    8.28706              16.25236               3.94766
   Na                    5.80423              18.17719              20.21546
   Na                   15.12981              13.18405              16.60205
   Na                    1.33613               1.94584               3.32985
   Na                   11.48979              11.19786              17.60181
   Na                   13.80010              20.29496              17.33902
   Na                    9.73463              13.25972              12.70641
   Na                    2.17926              20.32110              13.33118
   Na                    4.06594               6.09076              19.32352
   Na                   16.54625              19.89408               3.74197
   Na                   14.63088              13.94279               0.79102
   Na                    2.81010              16.82193              18.76327
   Na                   13.50695               9.35402               6.52926
   Na                    4.42269               9.55737              20.51141
   Na                   16.36980               9.94278               3.24276
        16
            21.47412
   Na                   13.49048               4.81276               2.60289
   Na                    7.75569              15.96996               3.81581
   Na                    5.54634              20.33839              20.12960
   Na                   15.77894              14.16432              16.68481
   Na                    2.12631               1.44187               6.34802
   Na                   13.53040              13.84136              20.28982
   Na                   14.75748              20.28202              19.18307
   Na                    9.46574              12.70784              14.49136
   Na                    3.00518               0.73711              12.79438
   Na                    2.14608               4.53618              20.39108
   Na                   18.44200              21.15687               3.82547
   Na                   14.16679              14.41714               2.18992
   Na                    4.21766              18.06101              17.28723
   Na                   13.76649               8.99173               9.90678
   Na                    2.98499               7.79711              19.22629
   Na                   17.95563              10.21022               4.37877
        16
            21.18585
   Na                   13.46714               4.23970               2.37710
   Na                    6.37048              15.15820               1.62896
   Na                    5.95461              19.49150              18.23118
   Na                   14.57827              12.97443              15.67606
   Na                    2.58211               2.73815               5.65719
   Na                   12.54332              12.71359              18.31011
   Na                   13.39792              20.32744              17.18114
   Na                    6.97815              13.65097              12.92794
   Na                    2.57007               0.37217              10.96840
   Na                    2.83256               4.40381              19.54701
   Na                   17.68892              20.72732               2.43544
   Na                   13.57738              13.82873               1.09624
   Na                    3.62639              18.16324              16.11027
   Na                   12.09508              10.72630               8.83973
   Na                    2.65209               8.24956              18.72638
   Na                   16.95941               8.72979               3.26551
        16
            21.44332
   Na                   11.52320               5.39448               1.81412
   Na                    8.39843              18.80194               4.59228
   Na                    4.32523              19.88244              19.58868
   Na                   12.41691              13.94965              14.46008
   Na                    0.38639               1.78992               7.17654
   Na                   11.90883              13.40103              18.70398
   Na                   11.67016               0.16584              15.20990
   Na                    4.11482              12.03631              14.11875
   Na                    3.07889              20.92296              11.14947
   Na                    0.80329               4.87356              19.06927
   Na                   18.38184              20.01723               4.35140
   Na                   10.51868              14.10498               1.06222
   Na                    2.78281              17.88437              16.80123
   Na                   11.35560               9.64076               6.32224
   Na                    2.29398               9.42976              20.76347
   Na                   16.53993               8.62393               3.65435
        16
            21.57667
   Na                   13.05474               5.18450               3.07661
   Na                    9.68236              14.85093               8.34595
   Na                    5.30025               0.22968              21.16479
   Na                   14.31334              15.26827              16.80496
   Na                    0.00148               1.95358               7.07246
   Na                    9.33858              13.49479              19.10784
   Na                   13.26359              20.90185              14.40432
   Na                    3.66641              13.21696              14.52236
   Na                    3.24776               0.32230              13.44985
   Na                   21.24841               2.70094              21.12890
   Na                   17.83378              19.83801               4.30941
   Na                   12.26838              14.83495               1.99914
   Na                    4.63893              18.30141              18.67349
   Na                    7.97570               9.04969               8.74360
   Na                    0.20748              10.11588              20.84688
   Na                   16.59349               7.86529               5.60335
